Sistemas teste e codigos/ConversaoFormatos_MatPower2pwf/Sistemas/case118bus.pwf
TITU
Sistema de 39 barras -26-Aug-2024 15:59:08
DBAR                                                                                                                    
(Num)OETGb(   nome   )Gl( V)( A)( Pg)( Qg)( Qn)( Qm)(Bc  )( Pl)( Ql)( Sh)Are(Vf)M(1)(2)(3)(4)(5)(6)(7)(8)(9)(10
    1  0                1039-13.    0    0    0    0       97.6 44.2    0  2                                            
    2  0                1048-9.8    0    0    0    0          0    0    0  2                                            
    3  0                1031-12.    0    0    0    0        322  2.4    0  2                                            
    4  0                1004-12.    0    0    0    0        500  184    0  1                                            
    5  0                1006-11.    0    0    0    0          0    0    0  1                                            
    6  0                1008-10.    0    0    0    0          0    0    0  1                                            
    7  0                 998-12.    0    0    0    0      233.8   84    0  1                                            
    8  0                 998-13.    0    0    0    0        522176.6    0  1                                            
    9  0                1038-14.    0    0    0    0        6.5-66.6    0  1                                            
   10  0                1018-8.2    0    0    0    0          0    0    0  1                                            
   11  0                1013-8.9    0    0    0    0          0    0    0  1                                            
   12  0                1001  -9    0    0    0    0        8.5   88    0  1                                            
   13  0                1015-8.9    0    0    0    0          0    0    0  1                                            
   14  0                1012-10.    0    0    0    0          0    0    0  1                                            
   15  0                1016-11.    0    0    0    0        320  153    0  3                                            
   16  0                1033 -10    0    0    0    0        329 32.3    0  3                                            
   17  0                1034-11.    0    0    0    0          0    0    0  2                                            
   18  0                1032 -12    0    0    0    0        158   30    0  2                                            
   19  0                1050-5.4    0    0    0    0          0    0    0  3                                            
   20  0                 991-6.8    0    0    0    0        680  103    0  3                                            
   21  0                1032-7.6    0    0    0    0        274  115    0  3                                            
   22  0                1050-3.2    0    0    0    0          0    0    0  3                                            
   23  0                1045-3.4    0    0    0    0      247.5 84.6    0  3                                            
   24  0                1038-9.9    0    0    0    0      308.6-92.2    0  3                                            
   25  0                1058-8.4    0    0    0    0        224 47.2    0  2                                            
   26  0                1053-9.4    0    0    0    0        139   17    0  2                                            
   27  0                1038-11.    0    0    0    0        281 75.5    0  2                                            
   28  0                1050-5.9    0    0    0    0        206 27.6    0  3                                            
   29  0                1050-3.2    0    0    0    0      283.5 26.9    0  3                                            
   30  1                1050-7.4  250  162  140  400          0    0    0  2                                            
   31  2                 982   0  678  222 -100  300        9.2  4.6    0  1                                            
   32  1                 984-0.2  650  207  150  300          0    0    0  1                                            
   33  1                 997-0.2  632  108    0  250          0    0    0  3                                            
   34  1                1012-1.6  508  167    0  167          0    0    0  3                                            
   35  1                1049 1.8  650  211 -100  300          0    0    0  3                                            
   36  1                1064 4.5  560  100    0  240          0    0    0  3                                            
   37  1                1028-1.6  540   -1    0  250          0    0    0  2                                            
   38  1                1027 3.9  830   22 -150  300          0    0    0  3                                            
   39  1                1030-14. 1000   78 -100  300       1104  250    0  1                                            
99999
DLIN
(De )d O d(Pa )NcEPM( R% )( X% )(Mvar)(Tap)(Tmn)(Tmx)(Phs)(Bc  )(Cn)(Ce)Ns(Cq)(1)(2)(3)(4)(5)(6)(7)(8)(9)(10
    1         2 1     0.35  4.11 69.87                           600 600                                                
    1        39 1      0.1   2.5    75                          10001000                                                
    2         3 1     0.13  1.51 25.72                           500 500                                                
    2        25 1      0.7  0.86  14.6                           500 500                                                
    2        30 1        0  1.81     01.025              0       9002500                                                
    3         4 1     0.13  2.13 22.14                           500 500                                                
    3        18 1     0.11  1.33 21.38                           500 500                                                
    4         5 1     0.08  1.28 13.42                           600 600                                                
    4        14 1     0.08  1.29 13.82                           500 500                                                
    5         6 1     0.02  0.26  4.34                          12001200                                                
    5         8 1     0.08  1.12 14.76                           900 900                                                
    6         7 1     0.06  0.92  11.3                           900 900                                                
    6        11 1     0.07  0.82 13.89                           480 480                                                
    6        31 1        0   2.5     0 1.07              0      18001800                                                
    7         8 1     0.04  0.46   7.8                           900 900                                                
    8         9 1     0.23  3.63 38.04                           900 900                                                
    9        39 1      0.1   2.5   120                           900 900                                                
   10        11 1     0.04  0.43  7.29                           600 600                                                
   10        13 1     0.04  0.43  7.29                           600 600                                                
   10        32 1        0     2     0 1.07              0       9002500                                                
   12        11 1     0.16  4.35     01.006              0       500 500                                                
   12        13 1     0.16  4.35     01.006              0       500 500                                                
   13        14 1     0.09  1.01 17.23                           600 600                                                
   14        15 1     0.18  2.17  36.6                           600 600                                                
   15        16 1     0.09  0.94  17.1                           600 600                                                
   16        17 1     0.07  0.89 13.42                           600 600                                                
   16        19 1     0.16  1.95  30.4                           6002500                                                
   16        21 1     0.08  1.35 25.48                           600 600                                                
   16        24 1     0.03  0.59   6.8                           600 600                                                
   17        18 1     0.07  0.82 13.19                           600 600                                                
   17        27 1     0.13  1.73 32.16                           600 600                                                
   19        20 1     0.07  1.38     0 1.06              0       9002500                                                
   19        33 1     0.07  1.42     0 1.07              0       9002500                                                
   20        34 1     0.09   1.8     01.009              0       9002500                                                
   21        22 1     0.08   1.4 25.65                           900 900                                                
   22        23 1     0.06  0.96 18.46                           600 600                                                
   22        35 1        0  1.43     01.025              0       9002500                                                
   23        24 1     0.22   3.5  36.1                           600 600                                                
   23        36 1     0.05  2.72     0    1              0       9002500                                                
   25        26 1     0.32  3.23  53.1                           600 600                                                
   25        37 1     0.06  2.32     01.025              0       9002500                                                
   26        27 1     0.14  1.47 23.96                           600 600                                                
   26        28 1     0.43  4.74 78.02                           600 600                                                
   26        29 1     0.57  6.25 102.9                           600 600                                                
   28        29 1     0.14  1.51  24.9                           600 600                                                
   29        38 1     0.08  1.56     01.025              0      12002500                                                
99999
DGER
(No ) O (Pmn ) (Pmx ) ( Fp) (FpR) (FPn) (Fa) (Fr) (Ag) ( Xq) (Sno) (Est)
   30                 73.89                                                                                             
   31                 -2.98                                                                                             
   32                  7.02                                                                                             
   33                  1.87                                                                                             
   34                     0                                                                                             
   35                  3.46                                                                                             
   36                  1.87                                                                                             
   37                  2.24                                                                                             
   38                  3.27                                                                                             
   39                  9.35                                                                                             
99999
FIM
